Lopinavir_HIV
  -ISIS-    3D

 46 49  0  0  1  0            999 V2000
    0.2243   -2.2136    0.0000 C   0  0  0  0  0  0
   -0.1847   -2.9276    0.0000 C   0  0  0  0  0  0
   -1.0076   -2.9301    0.0000 C   0  0  0  0  0  0
   -1.4213   -2.2189    0.0000 C   0  0  0  0  0  0
   -1.0122   -1.5049    0.0000 C   0  0  0  0  0  0
   -0.1893   -1.5023    0.0000 C   0  0  0  0  0  0
   -1.4279   -0.7903    0.0000 C   0  0  0  0  0  0
    4.2838    0.0363    0.0000 C   0  0  0  0  0  0
    3.5698    0.4497    0.0000 O   0  0  0  0  0  0
    2.8558    0.0363    0.0000 C   0  0  0  0  0  0
    2.1419    0.4497    0.0000 C   0  0  0  0  0  0
    1.4279    0.0363    0.0000 N   0  0  0  0  0  0
    0.7139    0.4497    0.0000 C   0  0  2  0  0  0
    0.0000    0.0363    0.0000 C   0  0  2  0  0  0
   -0.7139    0.4497    0.0000 C   0  0  0  0  0  0
   -1.4279    0.0363    0.0000 C   0  0  1  0  0  0
   -2.1419    0.4497    0.0000 N   0  0  0  0  0  0
   -2.8558    0.0363    0.0000 C   0  0  0  0  0  0
   -3.5697    0.4497    0.0000 C   0  0  1  0  0  0
   -4.2837    0.0363    0.0000 N   0  0  0  0  0  0
    4.9987    0.4480    0.0000 C   0  0  0  0  0  0
    5.7127    0.0346    0.0000 C   0  0  0  0  0  0
    5.7117   -0.7903    0.0000 C   0  0  0  0  0  0
    4.9967   -1.2019    0.0000 C   0  0  0  0  0  0
    4.2828   -0.7886    0.0000 C   0  0  0  0  0  0
    4.9997    1.2746    0.0000 C   0  0  0  0  0  0
    3.5664   -1.2010    0.0000 C   0  0  0  0  0  0
    2.1419    1.2764    0.0000 O   0  0  0  0  0  0
    0.7139    1.2764    0.0000 C   0  0  0  0  0  0
   -0.0018    1.6897    0.0000 C   0  0  0  0  0  0
   -0.7128    1.2768    0.0000 C   0  0  0  0  0  0
   -1.4287    1.6901    0.0000 C   0  0  0  0  0  0
   -1.4287    2.5168    0.0000 C   0  0  0  0  0  0
   -0.7128    2.9301    0.0000 C   0  0  0  0  0  0
    0.0031    2.5168    0.0000 C   0  0  0  0  0  0
    0.0028   -0.7882    0.0000 O   0  0  0  0  0  0
   -2.8558   -0.7903    0.0000 O   0  0  0  0  0  0
   -3.5697    1.5652    0.0000 C   0  0  0  0  0  0
   -4.2857    1.9785    0.0000 C   0  0  0  0  0  0
   -2.8538    1.9785    0.0000 C   0  0  0  0  0  0
   -4.2827   -0.7886    0.0000 C   0  0  0  0  0  0
   -4.9967   -1.2019    0.0000 C   0  0  0  0  0  0
   -5.7117   -0.7903    0.0000 C   0  0  0  0  0  0
   -5.7127    0.0346    0.0000 N   0  0  0  0  0  0
   -4.9987    0.4480    0.0000 C   0  0  0  0  0  0
   -4.9996    1.2746    0.0000 O   0  0  0  0  0  0
  1  2  2  0  0  0
  1  6  1  0  0  0
  2  3  1  0  0  0
  3  4  2  0  0  0
  4  5  1  0  0  0
  5  7  1  0  0  0
  5  6  2  0  0  0
  7 16  1  0  0  0
  8  9  1  0  0  0
  8 21  2  0  0  0
  8 25  1  0  0  0
  9 10  1  0  0  0
 10 11  1  0  0  0
 11 28  2  0  0  0
 11 12  1  0  0  0
 12 13  1  0  0  0
 13 14  1  0  0  0
 13 29  1  1  0  0
 14 15  1  0  0  0
 14 36  1  1  0  0
 15 16  1  0  0  0
 16 17  1  6  0  0
 17 18  1  0  0  0
 18 37  2  0  0  0
 18 19  1  0  0  0
 19 38  1  0  0  0
 19 20  1  6  0  0
 20 41  1  0  0  0
 20 45  1  0  0  0
 21 22  1  0  0  0
 21 26  1  0  0  0
 22 23  2  0  0  0
 23 24  1  0  0  0
 24 25  2  0  0  0
 25 27  1  0  0  0
 29 30  1  0  0  0
 30 31  2  0  0  0
 30 35  1  0  0  0
 31 32  1  0  0  0
 32 33  2  0  0  0
 33 34  1  0  0  0
 34 35  2  0  0  0
 38 39  1  0  0  0
 38 40  1  0  0  0
 41 42  1  0  0  0
 42 43  1  0  0  0
 43 44  1  0  0  0
 44 45  1  0  0  0
 45 46  2  0  0  0
M  END
$$$$
